@<TRIPOS>MOLECULE
****
34 33 1 0 0
SMALL
USER_CHARGES


@<TRIPOS>ATOM
      1 C           1.1440   -2.0193   -0.8425 C.2       1     ****    0.0000
      2 N          -1.2655   -2.2063   -0.8425 N.am      1     ****    0.0000
      3 C          -0.1628   -1.2647   -0.8425 C.3       1     ****    0.0000
      4 C          -0.2431   -0.3900    0.4017 C.3       1     ****    0.0000
      5 O           1.1439   -3.2273   -0.8425 O.2       1     ****    0.0000
      6 N           2.3296   -1.3349   -0.8425 N.am      1     ****    0.0000
      7 C           3.5853   -2.0601   -0.8425 C.3       1     ****    0.0000
      8 C          -2.5559   -1.7492   -0.8425 C.2       1     ****    0.0000
      9 O          -3.4745   -2.5336   -0.8425 O.2       1     ****    0.0000
     10 C          -2.8307   -0.2654   -0.8425 C.3       1     ****    0.0000
     11 C          -0.3770    1.0699   -0.0109 C.3       1     ****    0.0000
     12 C          -0.4573    1.9445    1.2333 C.3       1     ****    0.0000
     13 C           0.8076    1.7662    2.0626 C.3       1     ****    0.0000
     14 C          -0.5904    3.4041    0.8191 C.3       1     ****    0.0000
     15 H          -1.0811   -3.2013   -0.8425 H         1     ****    0.0000
     16 H          -0.2215   -0.6249   -1.7513 H         1     ****    0.0000
     17 H          -1.1289   -0.6868    1.0066 H         1     ****    0.0000
     18 H           0.6816   -0.5209    1.0072 H         1     ****    0.0000
     19 H           2.3297   -0.3229   -0.8425 H         1     ****    0.0000
     20 H           3.3824   -3.1544   -0.8425 H         1     ****    0.0000
     21 H           4.1683   -1.7914   -1.7518 H         1     ****    0.0000
     22 H           4.1688   -1.7911    0.0663 H         1     ****    0.0000
     23 H          -1.8668    0.2910   -0.8425 H         1     ****    0.0000
     24 H          -3.4136    0.0034   -1.7518 H         1     ****    0.0000
     25 H          -3.4142    0.0037    0.0663 H         1     ****    0.0000
     26 H           0.5088    1.3667   -0.6159 H         1     ****    0.0000
     27 H          -1.3017    1.2007   -0.6165 H         1     ****    0.0000
     28 H          -1.3427    1.6476    1.8388 H         1     ****    0.0000
     29 H           0.7489    2.4054    2.9718 H         1     ****    0.0000
     30 H           0.9048    0.6995    2.3652 H         1     ****    0.0000
     31 H           1.6930    2.0631    1.4570 H         1     ****    0.0000
     32 H          -0.6491    4.0442    1.7277 H         1     ****    0.0000
     33 H          -1.5151    3.5346    0.2136 H         1     ****    0.0000
     34 H           0.2954    3.7000    0.2137 H         1     ****    0.0000
@<TRIPOS>BOND
     1     1     3     1
     2     1     5     2
     3     1     6     1
     4     2     3     1
     5     2     8     1
     6     2    15     1
     7     3     4     1
     8     3    16     1
     9     4    11     1
    10     4    17     1
    11     4    18     1
    12     6     7     1
    13     6    19     1
    14     7    20     1
    15     7    21     1
    16     7    22     1
    17     8     9     2
    18     8    10     1
    19    10    23     1
    20    10    24     1
    21    10    25     1
    22    11    12     1
    23    11    26     1
    24    11    27     1
    25    12    13     1
    26    12    14     1
    27    12    28     1
    28    13    29     1
    29    13    30     1
    30    13    31     1
    31    14    32     1
    32    14    33     1
    33    14    34     1
