@<TRIPOS>MOLECULE
****
31 31 1 0 0
SMALL
USER_CHARGES


@<TRIPOS>ATOM
      1 C           1.7069   -0.0482    1.2531 C.2       1     ****    0.0000
      2 N           1.5330   -0.1548   -1.1541 N.am      1     ****    0.0000
      3 C           0.7817    0.0650    0.0664 C.3       1     ****    0.0000
      4 C          -0.3197   -0.9808    0.1807 C.3       1     ****    0.0000
      5 O           1.2759    0.1024    2.3715 O.2       1     ****    0.0000
      6 N           3.0347   -0.3215    1.0622 N.am      1     ****    0.0000
      7 C           3.9237   -0.4302    2.2025 C.3       1     ****    0.0000
      8 C           0.9000   -0.1009   -2.3667 C.2       1     ****    0.0000
      9 O           1.5260   -0.2840   -3.3835 O.2       1     ****    0.0000
     10 C          -0.5797    0.1873   -2.4332 C.3       1     ****    0.0000
     11 C          -1.6522   -0.3002    0.2261 C.ar      1     ****    0.0000
     12 C          -2.8228   -1.0346    0.3296 C.ar      1     ****    0.0000
     13 N          -4.0548   -0.4823    0.3753 N.ar      1     ****    0.0000
     14 C          -4.1164    0.8658    0.3145 C.ar      1     ****    0.0000
     15 C          -3.0032    1.6845    0.2103 C.ar      1     ****    0.0000
     16 C          -1.7483    1.0862    0.1655 C.ar      1     ****    0.0000
     17 H           2.5254   -0.3481   -1.1095 H         1     ****    0.0000
     18 H           0.3275    1.0809    0.0444 H         1     ****    0.0000
     19 H          -0.2798   -1.6587   -0.7011 H         1     ****    0.0000
     20 H          -0.1737   -1.5728    1.1119 H         1     ****    0.0000
     21 H           3.3957   -0.4476    0.1253 H         1     ****    0.0000
     22 H           3.3479   -0.2616    3.1400 H         1     ****    0.0000
     23 H           4.3766   -1.4467    2.2236 H         1     ****    0.0000
     24 H           4.7287    0.3339    2.1193 H         1     ****    0.0000
     25 H          -0.9778    0.3263   -1.4032 H         1     ****    0.0000
     26 H          -0.7503    1.1147   -3.0245 H         1     ****    0.0000
     27 H          -1.1022   -0.6659   -2.9208 H         1     ****    0.0000
     28 H          -2.7443   -2.1308    0.3773 H         1     ****    0.0000
     29 H          -5.1077    1.3413    0.3498 H         1     ****    0.0000
     30 H          -3.1092    2.7784    0.1643 H         1     ****    0.0000
     31 H          -0.8413    1.7030    0.0830 H         1     ****    0.0000
@<TRIPOS>BOND
     1     1     3     1
     2     1     5     2
     3     1     6     1
     4     2     3     1
     5     2     8     1
     6     2    17     1
     7     3     4     1
     8     3    18     1
     9     4    11     1
    10     4    19     1
    11     4    20     1
    12     6     7     1
    13     6    21     1
    14     7    22     1
    15     7    23     1
    16     7    24     1
    17     8     9     2
    18     8    10     1
    19    10    25     1
    20    10    26     1
    21    10    27     1
    22    11    12     1
    23    11    16     2
    24    12    13     2
    25    12    28     1
    26    13    14     1
    27    14    15     2
    28    14    29     1
    29    15    16     1
    30    15    30     1
    31    16    31     1
