@<TRIPOS>MOLECULE
****
36 36 1 0 0
SMALL
USER_CHARGES


@<TRIPOS>ATOM
      1 C           1.8482    1.0414   -1.6519 C.2       1     ****    0.0000
      2 N           1.8184    1.6424    0.6877 N.am      1     ****    0.0000
      3 C           1.1490    0.8533   -0.3280 C.3       1     ****    0.0000
      4 C          -0.2998    1.3066   -0.4510 C.3       1     ****    0.0000
      5 O           1.4448    0.4670   -2.6351 O.2       1     ****    0.0000
      6 N           2.9398    1.8631   -1.7389 N.am      1     ****    0.0000
      7 C           3.6117    2.0438   -3.0111 C.3       1     ****    0.0000
      8 C           1.3587    1.6304    1.9772 C.2       1     ****    0.0000
      9 O           1.9164    2.2878    2.8234 O.2       1     ****    0.0000
     10 C           0.1552    0.7961    2.3414 C.3       1     ****    0.0000
     11 C          -1.2103    0.1580   -0.1463 C.ar      1     ****    0.0000
     12 C          -0.6756   -1.0866    0.1862 C.ar      1     ****    0.0000
     13 C          -1.5240   -2.1568    0.4700 C.ar      1     ****    0.0000
     14 C          -2.9070   -1.9823    0.4214 C.ar      1     ****    0.0000
     15 C          -3.4417   -0.7377    0.0890 C.ar      1     ****    0.0000
     16 C          -2.5933    0.3325   -0.1949 C.ar      1     ****    0.0000
     17 O          -1.0046   -3.3659    0.7929 O.3       1     ****    0.0000
     18 C          -2.0243   -4.2961    1.0392 C.3       1     ****    0.0000
     19 H           2.6255    2.2019    0.4435 H         1     ****    0.0000
     20 H           1.1782   -0.2217   -0.0415 H         1     ****    0.0000
     21 H          -0.4919    2.1329    0.2695 H         1     ****    0.0000
     22 H          -0.4894    1.6653   -1.4874 H         1     ****    0.0000
     23 H           3.2777    2.3443   -0.9153 H         1     ****    0.0000
     24 H           3.0985    1.4385   -3.7915 H         1     ****    0.0000
     25 H           3.5811    3.1191   -3.2967 H         1     ****    0.0000
     26 H           4.6705    1.7127   -2.9216 H         1     ****    0.0000
     27 H          -0.2173    0.2664    1.4362 H         1     ****    0.0000
     28 H           0.4424    0.0498    3.1155 H         1     ****    0.0000
     29 H          -0.6467    1.4565    2.7409 H         1     ****    0.0000
     30 H           0.4151   -1.2241    0.2246 H         1     ****    0.0000
     31 H          -3.5760   -2.8263    0.6453 H         1     ****    0.0000
     32 H          -4.5324   -0.6001    0.0508 H         1     ****    0.0000
     33 H          -3.0149    1.3141   -0.4571 H         1     ****    0.0000
     34 H          -1.5745   -5.2796    1.3019 H         1     ****    0.0000
     35 H          -2.6548   -3.9395    1.8842 H         1     ****    0.0000
     36 H          -2.6528   -4.4074    0.1273 H         1     ****    0.0000
@<TRIPOS>BOND
     1     1     3     1
     2     1     5     2
     3     1     6     1
     4     2     3     1
     5     2     8     1
     6     2    19     1
     7     3     4     1
     8     3    20     1
     9     4    11     1
    10     4    21     1
    11     4    22     1
    12     6     7     1
    13     6    23     1
    14     7    24     1
    15     7    25     1
    16     7    26     1
    17     8     9     2
    18     8    10     1
    19    10    27     1
    20    10    28     1
    21    10    29     1
    22    11    12     1
    23    11    16     2
    24    12    13     2
    25    12    30     1
    26    13    14     1
    27    13    17     1
    28    14    15     2
    29    14    31     1
    30    15    16     1
    31    15    32     1
    32    16    33     1
    33    17    18     1
    34    18    34     1
    35    18    35     1
    36    18    36     1
