@<TRIPOS>MOLECULE
****
40 41 1 0 0
SMALL
USER_CHARGES


@<TRIPOS>ATOM
      1 C           0.5883    3.1611   -1.4758 C.2       1     ****    0.0000
      2 N           0.7248    3.2424    0.9348 N.am      1     ****    0.0000
      3 C           0.5068    2.3633   -0.1975 C.3       1     ****    0.0000
      4 C          -0.8708    1.7233   -0.0864 C.3       1     ****    0.0000
      5 O           0.4341    2.6126   -2.5410 O.2       1     ****    0.0000
      6 N           0.8370    4.5065   -1.4282 N.am      1     ****    0.0000
      7 C           0.9154    5.2731   -2.6565 C.3       1     ****    0.0000
      8 C           0.6969    2.7389    2.2076 C.2       1     ****    0.0000
      9 O           0.8786    3.4713    3.1509 O.2       1     ****    0.0000
     10 C           0.4391    1.2691    2.4321 C.3       1     ****    0.0000
     11 C          -0.7266    0.2346   -0.0237 C.ar      1     ****    0.0000
     12 C           0.5283   -0.3637   -0.0685 C.ar      1     ****    0.0000
     13 C           0.6244   -1.7501   -0.0079 C.ar      1     ****    0.0000
     14 C          -0.5462   -2.4845    0.0956 C.ar      1     ****    0.0000
     15 N          -1.7782   -1.9322    0.1413 N.ar      1     ****    0.0000
     16 C          -1.8398   -0.5841    0.0805 C.ar      1     ****    0.0000
     17 C          -0.4508   -3.8168    0.1536 C.ar      1     ****    0.0000
     18 N           0.7680   -4.3788   -0.0009 N.ar      1     ****    0.0000
     19 C           0.8100   -5.7279   -0.0541 C.ar      1     ****    0.0000
     20 C          -0.3100   -6.5385    0.0401 C.ar      1     ****    0.0000
     21 C          -1.5509   -5.9303    0.1986 C.ar      1     ****    0.0000
     22 C          -1.6267   -4.5426    0.2570 C.ar      1     ****    0.0000
     23 H           0.8977    4.2281    0.7843 H         1     ****    0.0000
     24 H           1.2855    1.5682   -0.2051 H         1     ****    0.0000
     25 H          -1.3743    2.0860    0.8376 H         1     ****    0.0000
     26 H          -1.4809    1.9997   -0.9753 H         1     ****    0.0000
     27 H           0.9662    4.9660   -0.5359 H         1     ****    0.0000
     28 H           0.7481    4.5992   -3.5264 H         1     ****    0.0000
     29 H           0.1357    6.0674   -2.6479 H         1     ****    0.0000
     30 H           1.9220    5.7410   -2.7381 H         1     ****    0.0000
     31 H           0.2969    0.7628    1.4512 H         1     ****    0.0000
     32 H           1.3085    0.8169    2.9598 H         1     ****    0.0000
     33 H          -0.4777    1.1437    3.0505 H         1     ****    0.0000
     34 H           1.4353    0.2531   -0.1510 H         1     ****    0.0000
     35 H           1.6036   -2.2502   -0.0413 H         1     ****    0.0000
     36 H          -2.8311   -0.1086    0.1157 H         1     ****    0.0000
     37 H           1.7902   -6.2112   -0.1795 H         1     ****    0.0000
     38 H          -0.2202   -7.6337   -0.0093 H         1     ****    0.0000
     39 H          -2.4628   -6.5405    0.2771 H         1     ****    0.0000
     40 H          -2.5945   -4.0348    0.3819 H         1     ****    0.0000
@<TRIPOS>BOND
     1     1     3     1
     2     1     5     2
     3     1     6     1
     4     2     3     1
     5     2     8     1
     6     2    23     1
     7     3     4     1
     8     3    24     1
     9     4    11     1
    10     4    25     1
    11     4    26     1
    12     6     7     1
    13     6    27     1
    14     7    28     1
    15     7    29     1
    16     7    30     1
    17     8     9     2
    18     8    10     1
    19    10    31     1
    20    10    32     1
    21    10    33     1
    22    11    12     1
    23    11    16     2
    24    12    13     2
    25    12    34     1
    26    13    14     1
    27    13    35     1
    28    14    15     2
    29    14    17     1
    30    15    16     1
    31    16    36     1
    32    17    18     2
    33    17    22     1
    34    18    19     1
    35    19    20     2
    36    19    37     1
    37    20    21     1
    38    20    38     1
    39    21    22     2
    40    21    39     1
    41    22    40     1
