@<TRIPOS>MOLECULE
****
31 30 1 0 0
SMALL
USER_CHARGES


@<TRIPOS>ATOM
      1 C           2.2328    0.1693    0.6178 C.2       1     ****    0.0000
      2 N           1.1904   -2.0111    0.6178 N.am      1     ****    0.0000
      3 C           0.9260   -0.5854    0.6178 C.3       1     ****    0.0000
      4 C           0.1283   -0.2177   -0.6264 C.3       1     ****    0.0000
      5 O           3.2790   -0.4346    0.6178 O.2       1     ****    0.0000
      6 N           2.2326    1.5383    0.6178 N.am      1     ****    0.0000
      7 C           3.4883    2.2634    0.6178 C.3       1     ****    0.0000
      8 C           0.1495   -2.9003    0.6178 C.2       1     ****    0.0000
      9 O           0.3698   -4.0880    0.6178 O.2       1     ****    0.0000
     10 C          -1.2730   -2.3967    0.6178 C.3       1     ****    0.0000
     11 C          -1.2031    0.3959   -0.2138 C.3       1     ****    0.0000
     12 C          -2.0008    0.7636   -1.4580 C.3       1     ****    0.0000
     13 N          -3.3121    1.3679   -1.0516 N.2       1     ****    1.0000
     14 H           2.1444   -2.3488    0.6178 H         1     ****    0.0000
     15 H           0.3425   -0.3164    1.5266 H         1     ****    0.0000
     16 H           0.7038    0.5182   -1.2314 H         1     ****    0.0000
     17 H          -0.0570   -1.1330   -1.2320 H         1     ****    0.0000
     18 H           1.3562    2.0442    0.6178 H         1     ****    0.0000
     19 H           4.3347    1.5406    0.6178 H         1     ****    0.0000
     20 H           3.5470    2.9026   -0.2915 H         1     ****    0.0000
     21 H           3.5470    2.9032    1.5266 H         1     ****    0.0000
     22 H          -1.2731   -1.2837    0.6178 H         1     ****    0.0000
     23 H          -1.7972   -2.7672   -0.2915 H         1     ****    0.0000
     24 H          -1.7977   -2.7676    1.5266 H         1     ****    0.0000
     25 H          -1.7786   -0.3401    0.3912 H         1     ****    0.0000
     26 H          -1.0178    1.3112    0.3918 H         1     ****    0.0000
     27 H          -1.4254    1.4995   -2.0629 H         1     ****    0.0000
     28 H          -2.1861   -0.1517   -2.0635 H         1     ****    0.0000
     29 H          -3.8595    1.6202   -1.9053 H         1     ****    0.0000
     30 H          -3.8525    0.6769   -0.4836 H         1     ****    0.0000
     31 H          -3.1381    2.2273   -0.4830 H         1     ****    0.0000
@<TRIPOS>BOND
     1     1     3     1
     2     1     5     2
     3     1     6     1
     4     2     3     1
     5     2     8     1
     6     2    14     1
     7     3     4     1
     8     3    15     1
     9     4    11     1
    10     4    16     1
    11     4    17     1
    12     6     7     1
    13     6    18     1
    14     7    19     1
    15     7    20     1
    16     7    21     1
    17     8     9     2
    18     8    10     1
    19    10    22     1
    20    10    23     1
    21    10    24     1
    22    11    12     1
    23    11    25     1
    24    11    26     1
    25    12    13     1
    26    12    27     1
    27    12    28     1
    28    13    29     1
    29    13    30     1
    30    13    31     1
